ClO2
APtclcactv07312005073D 0   0.00000     0.00000
 
  3  2  0  0  0  0  0  0  0  0999 V2000
   -0.0000   -0.4086   -0.0000 Cl  0  0  0  0  0  0  0  0  0  0  0  0
   -1.2180    0.4527    0.0000 O   0  0  0  0  0  0  0  0  0  0  0  0
    1.2180    0.4527    0.0000 O   0  5  0  0  0  0  0  0  0  0  0  0
  1  2  2  0  0  0  0
  1  3  1  0  0  0  0
M  CHG  1   3  -1
M  END
$$$$
