Cr2O7
APtclcactv07312005113D 0   0.00000     0.00000
 
  9  8  0  0  0  0  0  0  0  0999 V2000
   -1.5012    0.0000    0.0584 Cr  0  0  0  0  0  0  0  0  0  0  0  0
   -1.5382   -1.3219   -0.8756 O   0  0  0  0  0  0  0  0  0  0  0  0
   -1.5382    1.3219   -0.8756 O   0  0  0  0  0  0  0  0  0  0  0  0
   -2.7852    0.0000    1.0447 O   0  5  0  0  0  0  0  0  0  0  0  0
    0.0000    0.0000    1.0333 O   0  0  0  0  0  0  0  0  0  0  0  0
    1.5012   -0.0000    0.0584 Cr  0  0  0  0  0  0  0  0  0  0  0  0
    1.5382    1.3219   -0.8756 O   0  0  0  0  0  0  0  0  0  0  0  0
    2.7852    0.0000    1.0447 O   0  0  0  0  0  0  0  0  0  0  0  0
    1.5382   -1.3219   -0.8756 O   0  5  0  0  0  0  0  0  0  0  0  0
  1  2  2  0  0  0  0
  1  3  2  0  0  0  0
  1  4  1  0  0  0  0
  1  5  1  0  0  0  0
  5  6  1  0  0  0  0
  6  7  2  0  0  0  0
  6  8  2  0  0  0  0
  6  9  1  0  0  0  0
M  CHG  2   4  -1   9  -1
M  END
$$$$
